power-feeders/Taxonomy_feeders/R1_1247_2_t6.glm
//Input feeder information for Taxonomy Feeders with different cases.
//Started on 10/21/09. This version created 25-Feb-2019 18:33:31.
// This version was created to perform FY11 Department of Energy
// analysis on the benefits of the SGIG grant projects.

clock {
     timezone PST+8PDT;
     starttime '2009-01-01 00:00:00';
     stoptime '2010-01-02 00:00:00';
}

#include "appliance_schedules.glm";
#include "water_and_setpoint_schedule_v5.glm";
#include "commercial_schedules.glm";
#include "daily_elasticity_schedules.glm";
//#define stylesheet=http://gridlab-d.svn.sourceforge.net/viewvc/gridlab-d/trunk/core/gridlabd-2_0
#set minimum_timestep=60;
#set profiler=1;
#set relax_naming_rules=1;

module tape;
module climate;
module residential {
     implicit_enduses NONE;
};
module powerflow {
     solver_method NR;
     NR_iteration_limit 50;
};

class player {
     double value;
};

module market;

class auction {
     double my_avg;
     double my_std;
};

object player {
     name CPP_days_R1;
     file CPP_days_R1.player;
};

object auction {
     name Market_1;
     period 900;
     special_mode BUYERS_ONLY;
     unit kW;
     my_avg 0.110661;
     my_std 0.036888;
     object player {
          file R1_1247_2_t0_TOU.player;
          loop 10;
          property current_market.clearing_price;
     };
}

object climate {
     name "CA-San_francisco";
     tmyfile "CA-San_francisco.tmy2";
     interpolate QUADRATIC;
};

//Configurations

object regulator_configuration {     
      name regulator_configuration_2079;     
      name feeder_reg_cfg;     
      connect_type WYE_WYE;     
      Control OUTPUT_VOLTAGE;     
      band_center 7500;     
      band_width 120;     
      time_delay 30;     
      raise_taps 16;     
      lower_taps 16;     
      regulation 0.10;     
      tap_pos_A 0;     
      tap_pos_B 0;     
      tap_pos_C 0;     
}       

object line_configuration {     
      name line_configuration_21;     
      conductor_A underground_line_conductor_2;     
      conductor_B underground_line_conductor_2;     
      conductor_C underground_line_conductor_2;     
      conductor_N underground_line_conductor_2;     
      spacing line_spacing_10;     
}       

object line_configuration {     
      name line_configuration_22;     
      conductor_A overhead_line_conductor_3;     
      conductor_B overhead_line_conductor_3;     
      conductor_C overhead_line_conductor_3;     
      conductor_N overhead_line_conductor_3;     
      spacing line_spacing_11;     
}       

object line_configuration {     
      name line_configuration_23;     
      conductor_A overhead_line_conductor_4;     
      conductor_B overhead_line_conductor_4;     
      conductor_C overhead_line_conductor_4;     
      conductor_N overhead_line_conductor_4;     
      spacing line_spacing_11;     
}       

object line_configuration {     
      name line_configuration_24;     
      conductor_A underground_line_conductor_5;     
      conductor_B underground_line_conductor_5;     
      conductor_C underground_line_conductor_5;     
      conductor_N underground_line_conductor_5;     
      spacing line_spacing_10;     
}       

object line_configuration {     
      name line_configuration_25;     
      conductor_A overhead_line_conductor_4;     
      conductor_N overhead_line_conductor_4;     
      spacing line_spacing_12;     
}       

object line_configuration {     
      name line_configuration_26;     
      conductor_A underground_line_conductor_5;     
      conductor_N underground_line_conductor_5;     
      spacing line_spacing_13;     
}       

object line_configuration {     
      name line_configuration_27;     
      conductor_A overhead_line_conductor_3;     
      conductor_B overhead_line_conductor_3;     
      conductor_C overhead_line_conductor_3;     
      conductor_N overhead_line_conductor_3;     
      spacing line_spacing_11;     
}       

object line_configuration {     
      name line_configuration_28;     
      conductor_C overhead_line_conductor_4;     
      conductor_N overhead_line_conductor_4;     
      spacing line_spacing_14;     
}       

object line_configuration {     
      name line_configuration_29;     
      conductor_C overhead_line_conductor_6;     
      conductor_N overhead_line_conductor_6;     
      spacing line_spacing_14;     
}       

object line_configuration {     
      name line_configuration_30;     
      conductor_B overhead_line_conductor_6;     
      conductor_N overhead_line_conductor_6;     
      spacing line_spacing_15;     
}       

object line_configuration {     
      name line_configuration_31;     
      conductor_B overhead_line_conductor_4;     
      conductor_N overhead_line_conductor_4;     
      spacing line_spacing_15;     
}       

object line_configuration {     
      name line_configuration_32;     
      conductor_A overhead_line_conductor_7;     
      conductor_N overhead_line_conductor_7;     
      spacing line_spacing_12;     
}       

object line_configuration {     
      name line_configuration_33;     
      conductor_B overhead_line_conductor_6;     
      conductor_C overhead_line_conductor_6;     
      conductor_N overhead_line_conductor_6;     
      spacing line_spacing_16;     
}       

object line_configuration {     
      name line_configuration_34;     
      conductor_C overhead_line_conductor_4;     
      conductor_N overhead_line_conductor_4;     
      spacing line_spacing_14;     
}       

object line_configuration {     
      name line_configuration_35;     
      conductor_B overhead_line_conductor_4;     
      conductor_C overhead_line_conductor_4;     
      conductor_N overhead_line_conductor_4;     
      spacing line_spacing_16;     
}       

object line_configuration {     
      name line_configuration_36;     
      conductor_B underground_line_conductor_5;     
      conductor_N underground_line_conductor_5;     
      spacing line_spacing_17;     
}       

object line_configuration {     
      name line_configuration_37;     
      conductor_C underground_line_conductor_5;     
      conductor_N underground_line_conductor_5;     
      spacing line_spacing_18;     
}       

object line_configuration {     
      name line_configuration_38;     
      conductor_C overhead_line_conductor_8;     
      conductor_N overhead_line_conductor_8;     
      spacing line_spacing_14;     
}       

object line_configuration {     
      name line_configuration_39;     
      conductor_A overhead_line_conductor_3;     
      conductor_B overhead_line_conductor_3;     
      conductor_C overhead_line_conductor_3;     
      conductor_N overhead_line_conductor_3;     
      spacing line_spacing_11;     
}       

object line_configuration {     
      name line_configuration_40;     
      conductor_A overhead_line_conductor_9;     
      conductor_B overhead_line_conductor_9;     
      conductor_C overhead_line_conductor_9;     
      conductor_N overhead_line_conductor_9;     
      spacing line_spacing_11;     
}       

object line_configuration {     
      name line_configuration_41;     
      conductor_B overhead_line_conductor_8;     
      conductor_N overhead_line_conductor_8;     
      spacing line_spacing_15;     
}       

object line_configuration {     
      name line_configuration_42;     
      conductor_B underground_line_conductor_5;     
      conductor_N underground_line_conductor_5;     
      spacing line_spacing_15;     
}       

object line_configuration {     
      name line_configuration_43;     
      conductor_A overhead_line_conductor_9;     
      conductor_B overhead_line_conductor_9;     
      conductor_C overhead_line_conductor_9;     
      conductor_N overhead_line_conductor_9;     
      spacing line_spacing_11;     
}       

object line_configuration {     
      name line_configuration_44;     
      conductor_A overhead_line_conductor_6;     
      conductor_N overhead_line_conductor_6;     
      spacing line_spacing_12;     
}       

object line_configuration {     
      name line_configuration_45;     
      conductor_A overhead_line_conductor_6;     
      conductor_B overhead_line_conductor_6;     
      conductor_N overhead_line_conductor_6;     
      spacing line_spacing_19;     
}       

object line_configuration {     
      name line_configuration_46;     
      conductor_A overhead_line_conductor_7;     
      conductor_B overhead_line_conductor_7;     
      conductor_N overhead_line_conductor_7;     
      spacing line_spacing_19;     
}       

object line_configuration {     
      name line_configuration_47;     
      conductor_A overhead_line_conductor_6;     
      conductor_B overhead_line_conductor_6;     
      conductor_N overhead_line_conductor_6;     
      spacing line_spacing_19;     
}       

object line_configuration {     
      name line_configuration_48;     
      conductor_B underground_line_conductor_5;     
      conductor_C underground_line_conductor_5;     
      conductor_N underground_line_conductor_5;     
      spacing line_spacing_20;     
}       

object line_configuration {     
      name line_configuration_49;     
      conductor_A underground_line_conductor_5;     
      conductor_N underground_line_conductor_5;     
      spacing line_spacing_12;     
}       

object line_spacing {     
      name line_spacing_10;     
      distance_AB 0.0 in;    
      distance_BC 0.0 in;    
      distance_AC 0.0 in;    
      distance_AN 0.0 in;    
      distance_BN 0.0 in;    
      distance_CN 0.0 in;    
}       

object line_spacing {     
      name line_spacing_11;     
      distance_AB 57.6 in;    
      distance_BC 57.6 in;    
      distance_AC 57.6 in;    
      distance_AN 84.0 in;    
      distance_BN 84.0 in;    
      distance_CN 84.0 in;    
}       

object line_spacing {     
      name line_spacing_12;     
      distance_AN 84.0 in;    
}       

object line_spacing {     
      name line_spacing_13;     
      distance_AN 0.0 in;    
}       

object line_spacing {     
      name line_spacing_14;     
      distance_CN 84.0 in;    
}       

object line_spacing {     
      name line_spacing_15;     
      distance_BN 84.0 in;    
}       

object line_spacing {     
      name line_spacing_16;     
      distance_BC 57.6 in;    
      distance_BN 84.0 in;    
      distance_CN 84.0 in;    
}       

object line_spacing {     
      name line_spacing_17;     
      distance_BN 0.0 in;    
}       

object line_spacing {     
      name line_spacing_18;     
      distance_CN 0.0 in;    
}       

object line_spacing {     
      name line_spacing_19;     
      distance_AB 57.6 in;    
      distance_AN 84.0 in;    
      distance_BN 84.0 in;    
}       

object line_spacing {     
      name line_spacing_20;     
      distance_BC 0.0 in;    
      distance_BN 0.0 in;    
      distance_CN 0.0 in;    
}       

object overhead_line_conductor {     
      name overhead_line_conductor_3;     
      //name 4/0 ACSR;    
      rating.summer.continuous 334.0;     
      geometric_mean_radius 0.00814 ft;    
      resistance 0.56300;     
}       

object overhead_line_conductor {     
      name overhead_line_conductor_4;     
      //name 4 CU;    
      rating.summer.continuous 149.0;     
      geometric_mean_radius 0.00663 ft;    
      resistance 1.50000;     
}       

object overhead_line_conductor {     
      name overhead_line_conductor_6;     
      //name 4 AAAC;    
      rating.summer.continuous 120.0;     
      geometric_mean_radius 0.00700 ft;    
      resistance 2.40970;     
}       

object overhead_line_conductor {     
      name overhead_line_conductor_7;     
      //name 2 AAAC;    
      rating.summer.continuous 197.0;     
      geometric_mean_radius 0.00883 ft;    
      resistance 1.51970;     
}       

object overhead_line_conductor {     
      name overhead_line_conductor_8;     
      //name 2 ACSR;    
      rating.summer.continuous 180.0;     
      geometric_mean_radius 0.00418 ft;    
      resistance 1.62570;     
}       

object overhead_line_conductor {     
      name overhead_line_conductor_9;     
      //name 1/0 AAC;    
      rating.summer.continuous 230.0;     
      geometric_mean_radius 0.01203 ft;    
      resistance 0.95300;     
}       

object transformer_configuration {     
      name transformer_configuration_1417;     
      connect_type SINGLE_PHASE_CENTER_TAPPED;     
      install_type POLETOP;     
      primary_voltage 7200 V;    
      secondary_voltage 120 V;    
      power_rating 37.5;     
      powerA_rating 37.5;     
      resistance 0.00400;     
      reactance 0.00267;     
      shunt_impedance 365.685+340.474j;     
}       

object transformer_configuration {     
      name transformer_configuration_1418;     
      connect_type SINGLE_PHASE_CENTER_TAPPED;     
      install_type PADMOUNT;     
      primary_voltage 7200 V;    
      secondary_voltage 120 V;    
      power_rating 75.0;     
      powerA_rating 75.0;     
      resistance 0.00200;     
      reactance 0.00133;     
      shunt_impedance 443.910+463.922j;     
}       

object transformer_configuration {     
      name transformer_configuration_1419;     
      connect_type SINGLE_PHASE_CENTER_TAPPED;     
      install_type POLETOP;     
      primary_voltage 7200 V;    
      secondary_voltage 120 V;    
      power_rating 50.0;     
      powerA_rating 50.0;     
      resistance 0.00300;     
      reactance 0.00200;     
      shunt_impedance 391.760+330.449j;     
}       

object transformer_configuration {     
      name transformer_configuration_1420;     
      connect_type SINGLE_PHASE_CENTER_TAPPED;     
      install_type POLETOP;     
      primary_voltage 7200 V;    
      secondary_voltage 120 V;    
      power_rating 25.0;     
      powerA_rating 25.0;     
      resistance 0.00600;     
      reactance 0.00400;     
      shunt_impedance 339.610+336.934j;     
}       

object transformer_configuration {     
      name transformer_configuration_1421;     
      connect_type SINGLE_PHASE_CENTER_TAPPED;     
      install_type POLETOP;     
      primary_voltage 7200 V;    
      secondary_voltage 120 V;    
      power_rating 150.0;     
      powerA_rating 150.0;     
      resistance 0.00100;     
      reactance 0.00067;     
      shunt_impedance 600.360+543.819j;     
}       

object transformer_configuration {     
      name transformer_configuration_1422;     
      connect_type SINGLE_PHASE_CENTER_TAPPED;     
      install_type PADMOUNT;     
      primary_voltage 7200 V;    
      secondary_voltage 120 V;    
      power_rating 5;     
      powerA_rating 5;     
      resistance 0.015;     
      reactance 0.01;     
      shunt_impedance 297.890+278.442j;     
}       

object transformer_configuration {     
      name transformer_configuration_1423;     
      connect_type SINGLE_PHASE_CENTER_TAPPED;     
      install_type POLETOP;     
      primary_voltage 7200 V;    
      secondary_voltage 120 V;    
      power_rating 62.5;     
      powerA_rating 62.5;     
      resistance 0.00240;     
      reactance 0.00160;     
      shunt_impedance 417.835+429.640j;     
}       

object transformer_configuration {     
      name transformer_configuration_1424;     
      connect_type SINGLE_PHASE_CENTER_TAPPED;     
      install_type POLETOP;     
      primary_voltage 7200 V;    
      secondary_voltage 120 V;    
      power_rating 10.0;     
      powerA_rating 10.0;     
      resistance 0.015;     
      reactance 0.01;     
      shunt_impedance 308.320+273.632j;     
}       

object transformer_configuration {     
      name transformer_configuration_1425;     
      connect_type SINGLE_PHASE_CENTER_TAPPED;     
      install_type POLETOP;     
      primary_voltage 7200 V;    
      secondary_voltage 120 V;    
      power_rating 5;     
      powerA_rating 5;     
      resistance 0.015;     
      reactance 0.01;     
      shunt_impedance 297.890+268.429j;     
}       

object transformer_configuration {     
      name transformer_configuration_1426;     
      connect_type SINGLE_PHASE_CENTER_TAPPED;     
      install_type PADMOUNT;     
      primary_voltage 7200 V;    
      secondary_voltage 120 V;    
      power_rating 25.0;     
      powerA_rating 25.0;     
      resistance 0.00600;     
      reactance 0.00400;     
      shunt_impedance 339.610+288.130j;     
}       

object transformer_configuration {     
      name transformer_configuration_1427;     
      connect_type SINGLE_PHASE_CENTER_TAPPED;     
      install_type PADMOUNT;     
      primary_voltage 7200 V;    
      secondary_voltage 120 V;    
      power_rating 30.0;     
      powerA_rating 30.0;     
      resistance 0.00500;     
      reactance 0.00333;     
      shunt_impedance 350.040+272.033j;     
}       

object transformer_configuration {     
      name transformer_configuration_1428;     
      connect_type SINGLE_PHASE_CENTER_TAPPED;     
      install_type POLETOP;     
      primary_voltage 7200 V;    
      secondary_voltage 120 V;    
      power_rating 15.0;     
      powerA_rating 15.0;     
      resistance 0.01000;     
      reactance 0.00667;     
      shunt_impedance 318.750+313.920j;     
}       

object transformer_configuration {     
      name transformer_configuration_1429;     
      connect_type SINGLE_PHASE_CENTER_TAPPED;     
      install_type PADMOUNT;     
      primary_voltage 7200 V;    
      secondary_voltage 120 V;    
      power_rating 50.0;     
      powerA_rating 50.0;     
      resistance 0.00300;     
      reactance 0.00200;     
      shunt_impedance 391.760+437.312j;     
}       

object transformer_configuration {     
      name transformer_configuration_1430;     
      connect_type SINGLE_PHASE_CENTER_TAPPED;     
      install_type POLETOP;     
      primary_voltage 7200 V;    
      secondary_voltage 120 V;    
      power_rating 125.0;     
      powerA_rating 125.0;     
      resistance 0.00120;     
      reactance 0.00080;     
      shunt_impedance 548.210+538.236j;     
}       

object transformer_configuration {     
      name transformer_configuration_1431;     
      connect_type SINGLE_PHASE_CENTER_TAPPED;     
      install_type POLETOP;     
      primary_voltage 7200 V;    
      secondary_voltage 120 V;    
      power_rating 75.0;     
      powerA_rating 75.0;     
      resistance 0.00200;     
      reactance 0.00133;     
      shunt_impedance 443.910+433.525j;     
}       

object transformer_configuration {     
      name transformer_configuration_1432;     
      connect_type SINGLE_PHASE_CENTER_TAPPED;     
      install_type PADMOUNT;     
      primary_voltage 7200 V;    
      secondary_voltage 120 V;    
      power_rating 15.0;     
      powerA_rating 15.0;     
      resistance 0.01000;     
      reactance 0.00667;     
      shunt_impedance 318.750+285.385j;     
}       

object transformer_configuration {     
      name transformer_configuration_1433;     
      connect_type SINGLE_PHASE_CENTER_TAPPED;     
      install_type POLETOP;     
      primary_voltage 7200 V;    
      secondary_voltage 120 V;    
      power_rating 30.0;     
      powerA_rating 30.0;     
      resistance 0.00500;     
      reactance 0.00333;     
      shunt_impedance 350.040+405.462j;     
}       

object transformer_configuration {     
      name transformer_configuration_1434;     
      connect_type SINGLE_PHASE_CENTER_TAPPED;     
      install_type POLETOP;     
      primary_voltage 7200 V;    
      secondary_voltage 120 V;    
      power_rating 187.5;     
      powerA_rating 187.5;     
      resistance 0.00080;     
      reactance 0.00053;     
      shunt_impedance 678.585+661.660j;     
}       

object transformer_configuration {     
      name transformer_configuration_1435;     
      connect_type SINGLE_PHASE_CENTER_TAPPED;     
      install_type PADMOUNT;     
      primary_voltage 7200 V;    
      secondary_voltage 120 V;    
      power_rating 25.0;     
      powerB_rating 25.0;     
      resistance 0.00600;     
      reactance 0.00400;     
      shunt_impedance 339.610+383.556j;     
}       

object transformer_configuration {     
      name transformer_configuration_1436;     
      connect_type SINGLE_PHASE_CENTER_TAPPED;     
      install_type POLETOP;     
      primary_voltage 7200 V;    
      secondary_voltage 120 V;    
      power_rating 15.0;     
      powerB_rating 15.0;     
      resistance 0.01000;     
      reactance 0.00667;     
      shunt_impedance 318.750+330.288j;     
}       

object transformer_configuration {     
      name transformer_configuration_1437;     
      connect_type SINGLE_PHASE_CENTER_TAPPED;     
      install_type POLETOP;     
      primary_voltage 7200 V;    
      secondary_voltage 120 V;    
      power_rating 37.5;     
      powerB_rating 37.5;     
      resistance 0.00400;     
      reactance 0.00267;     
      shunt_impedance 365.685+356.066j;     
}       

object transformer_configuration {     
      name transformer_configuration_1438;     
      connect_type SINGLE_PHASE_CENTER_TAPPED;     
      install_type POLETOP;     
      primary_voltage 7200 V;    
      secondary_voltage 120 V;    
      power_rating 5;     
      powerB_rating 5;     
      resistance 0.015;     
      reactance 0.01;     
      shunt_impedance 297.890+330.126j;     
}       

object transformer_configuration {     
      name transformer_configuration_1439;     
      connect_type SINGLE_PHASE_CENTER_TAPPED;     
      install_type POLETOP;     
      primary_voltage 7200 V;    
      secondary_voltage 120 V;    
      power_rating 25.0;     
      powerB_rating 25.0;     
      resistance 0.00600;     
      reactance 0.00400;     
      shunt_impedance 339.610+372.974j;     
}       

object transformer_configuration {     
      name transformer_configuration_1440;     
      connect_type SINGLE_PHASE_CENTER_TAPPED;     
      install_type PADMOUNT;     
      primary_voltage 7200 V;    
      secondary_voltage 120 V;    
      power_rating 10.0;     
      powerB_rating 10.0;     
      resistance 0.015;     
      reactance 0.01;     
      shunt_impedance 308.320+304.884j;     
}       

object transformer_configuration {     
      name transformer_configuration_1441;     
      connect_type SINGLE_PHASE_CENTER_TAPPED;     
      install_type POLETOP;     
      primary_voltage 7200 V;    
      secondary_voltage 120 V;    
      power_rating 30.0;     
      powerB_rating 30.0;     
      resistance 0.00500;     
      reactance 0.00333;     
      shunt_impedance 350.040+395.403j;     
}       

object transformer_configuration {     
      name transformer_configuration_1442;     
      connect_type SINGLE_PHASE_CENTER_TAPPED;     
      install_type PADMOUNT;     
      primary_voltage 7200 V;    
      secondary_voltage 120 V;    
      power_rating 15.0;     
      powerB_rating 15.0;     
      resistance 0.01000;     
      reactance 0.00667;     
      shunt_impedance 318.750+375.529j;     
}       

object transformer_configuration {     
      name transformer_configuration_1443;     
      connect_type SINGLE_PHASE_CENTER_TAPPED;     
      install_type POLETOP;     
      primary_voltage 7200 V;    
      secondary_voltage 120 V;    
      power_rating 50.0;     
      powerB_rating 50.0;     
      resistance 0.00300;     
      reactance 0.00200;     
      shunt_impedance 391.760+389.189j;     
}       

object transformer_configuration {     
      name transformer_configuration_1444;     
      connect_type SINGLE_PHASE_CENTER_TAPPED;     
      install_type POLETOP;     
      primary_voltage 7200 V;    
      secondary_voltage 120 V;    
      power_rating 75.0;     
      powerB_rating 75.0;     
      resistance 0.00200;     
      reactance 0.00133;     
      shunt_impedance 443.910+432.560j;     
}       

object transformer_configuration {     
      name transformer_configuration_1445;     
      connect_type SINGLE_PHASE_CENTER_TAPPED;     
      install_type PADMOUNT;     
      primary_voltage 7200 V;    
      secondary_voltage 120 V;    
      power_rating 50.0;     
      powerB_rating 50.0;     
      resistance 0.00300;     
      reactance 0.00200;     
      shunt_impedance 391.760+407.612j;     
}       

object transformer_configuration {     
      name transformer_configuration_1446;     
      connect_type SINGLE_PHASE_CENTER_TAPPED;     
      install_type PADMOUNT;     
      primary_voltage 7200 V;    
      secondary_voltage 120 V;    
      power_rating 5;     
      powerB_rating 5;     
      resistance 0.015;     
      reactance 0.01;     
      shunt_impedance 297.890+308.368j;     
}       

object transformer_configuration {     
      name transformer_configuration_1447;     
      connect_type SINGLE_PHASE_CENTER_TAPPED;     
      install_type PADMOUNT;     
      primary_voltage 7200 V;    
      secondary_voltage 120 V;    
      power_rating 100.0;     
      powerB_rating 100.0;     
      resistance 0.00150;     
      reactance 0.00100;     
      shunt_impedance 496.060+536.117j;     
}       

object transformer_configuration {     
      name transformer_configuration_1448;     
      connect_type SINGLE_PHASE_CENTER_TAPPED;     
      install_type PADMOUNT;     
      primary_voltage 7200 V;    
      secondary_voltage 120 V;    
      power_rating 37.5;     
      powerB_rating 37.5;     
      resistance 0.00400;     
      reactance 0.00267;     
      shunt_impedance 365.685+356.338j;     
}       

object transformer_configuration {     
      name transformer_configuration_1449;     
      connect_type SINGLE_PHASE_CENTER_TAPPED;     
      install_type PADMOUNT;     
      primary_voltage 7200 V;    
      secondary_voltage 120 V;    
      power_rating 200.0;     
      powerB_rating 200.0;     
      resistance 0.00075;     
      reactance 0.00050;     
      shunt_impedance 704.660+755.051j;     
}       

object transformer_configuration {     
      name transformer_configuration_1450;     
      connect_type SINGLE_PHASE_CENTER_TAPPED;     
      install_type PADMOUNT;     
      primary_voltage 7200 V;    
      secondary_voltage 120 V;    
      power_rating 112.5;     
      powerB_rating 112.5;     
      resistance 0.00133;     
      reactance 0.00089;     
      shunt_impedance 522.135+576.886j;     
}       

object transformer_configuration {     
      name transformer_configuration_1451;     
      connect_type SINGLE_PHASE_CENTER_TAPPED;     
      install_type POLETOP;     
      primary_voltage 7200 V;    
      secondary_voltage 120 V;    
      power_rating 10.0;     
      powerB_rating 10.0;     
      resistance 0.015;     
      reactance 0.01;     
      shunt_impedance 308.320+313.794j;     
}       

object transformer_configuration {     
      name transformer_configuration_1452;     
      connect_type SINGLE_PHASE_CENTER_TAPPED;     
      install_type PADMOUNT;     
      primary_voltage 7200 V;    
      secondary_voltage 120 V;    
      power_rating 5;     
      powerC_rating 5;     
      resistance 0.015;     
      reactance 0.01;     
      shunt_impedance 297.890+302.457j;     
}       

object transformer_configuration {     
      name transformer_configuration_1453;     
      connect_type SINGLE_PHASE_CENTER_TAPPED;     
      install_type POLETOP;     
      primary_voltage 7200 V;    
      secondary_voltage 120 V;    
      power_rating 5;     
      powerC_rating 5;     
      resistance 0.015;     
      reactance 0.01;     
      shunt_impedance 297.890+260.525j;     
}       

object transformer_configuration {     
      name transformer_configuration_1454;     
      connect_type SINGLE_PHASE_CENTER_TAPPED;     
      install_type POLETOP;     
      primary_voltage 7200 V;    
      secondary_voltage 120 V;    
      power_rating 25.0;     
      powerC_rating 25.0;     
      resistance 0.00600;     
      reactance 0.00400;     
      shunt_impedance 339.610+299.781j;     
}       

object transformer_configuration {     
      name transformer_configuration_1455;     
      connect_type SINGLE_PHASE_CENTER_TAPPED;     
      install_type POLETOP;     
      primary_voltage 7200 V;    
      secondary_voltage 120 V;    
      power_rating 50.0;     
      powerC_rating 50.0;     
      resistance 0.00300;     
      reactance 0.00200;     
      shunt_impedance 391.760+334.507j;     
}       

object transformer_configuration {     
      name transformer_configuration_1456;     
      connect_type SINGLE_PHASE_CENTER_TAPPED;     
      install_type POLETOP;     
      primary_voltage 7200 V;    
      secondary_voltage 120 V;    
      power_rating 15.0;     
      powerC_rating 15.0;     
      resistance 0.01000;     
      reactance 0.00667;     
      shunt_impedance 318.750+279.088j;     
}       

object transformer_configuration {     
      name transformer_configuration_1457;     
      connect_type SINGLE_PHASE_CENTER_TAPPED;     
      install_type POLETOP;     
      primary_voltage 7200 V;    
      secondary_voltage 120 V;    
      power_rating 37.5;     
      powerC_rating 37.5;     
      resistance 0.00400;     
      reactance 0.00267;     
      shunt_impedance 365.685+360.013j;     
}       

object transformer_configuration {     
      name transformer_configuration_1458;     
      connect_type SINGLE_PHASE_CENTER_TAPPED;     
      install_type PADMOUNT;     
      primary_voltage 7200 V;    
      secondary_voltage 120 V;    
      power_rating 25.0;     
      powerC_rating 25.0;     
      resistance 0.00600;     
      reactance 0.00400;     
      shunt_impedance 339.610+284.766j;     
}       

object transformer_configuration {     
      name transformer_configuration_1459;     
      connect_type SINGLE_PHASE_CENTER_TAPPED;     
      install_type PADMOUNT;     
      primary_voltage 7200 V;    
      secondary_voltage 120 V;    
      power_rating 15.0;     
      powerC_rating 15.0;     
      resistance 0.01000;     
      reactance 0.00667;     
      shunt_impedance 318.750+390.343j;     
}       

object transformer_configuration {     
      name transformer_configuration_1460;     
      connect_type SINGLE_PHASE_CENTER_TAPPED;     
      install_type POLETOP;     
      primary_voltage 7200 V;    
      secondary_voltage 120 V;    
      power_rating 30.0;     
      powerC_rating 30.0;     
      resistance 0.00500;     
      reactance 0.00333;     
      shunt_impedance 350.040+375.918j;     
}       

object transformer_configuration {     
      name transformer_configuration_1461;     
      connect_type SINGLE_PHASE_CENTER_TAPPED;     
      install_type PADMOUNT;     
      primary_voltage 7200 V;    
      secondary_voltage 120 V;    
      power_rating 10.0;     
      powerC_rating 10.0;     
      resistance 0.015;     
      reactance 0.01;     
      shunt_impedance 308.320+244.570j;     
}       

object transformer_configuration {     
      name transformer_configuration_1462;     
      connect_type SINGLE_PHASE_CENTER_TAPPED;     
      install_type PADMOUNT;     
      primary_voltage 7200 V;    
      secondary_voltage 120 V;    
      power_rating 50.0;     
      powerC_rating 50.0;     
      resistance 0.00300;     
      reactance 0.00200;     
      shunt_impedance 391.760+346.529j;     
}       

object transformer_configuration {     
      name transformer_configuration_1463;     
      connect_type SINGLE_PHASE_CENTER_TAPPED;     
      install_type PADMOUNT;     
      primary_voltage 7200 V;    
      secondary_voltage 120 V;    
      power_rating 30.0;     
      powerC_rating 30.0;     
      resistance 0.00500;     
      reactance 0.00333;     
      shunt_impedance 350.040+346.288j;     
}       

object transformer_configuration {     
      name transformer_configuration_1464;     
      connect_type SINGLE_PHASE_CENTER_TAPPED;     
      install_type PADMOUNT;     
      primary_voltage 7200 V;    
      secondary_voltage 120 V;    
      power_rating 62.5;     
      powerC_rating 62.5;     
      resistance 0.00240;     
      reactance 0.00160;     
      shunt_impedance 417.835+346.265j;     
}       

object transformer_configuration {     
      name transformer_configuration_1716;     
      connect_type WYE_WYE;     
      install_type PADMOUNT;     
      primary_voltage 12470.000 V;    
      secondary_voltage 480 V;    
      power_rating 15.0;     
      powerA_rating 0.0;     
      powerB_rating 0.0;     
      powerC_rating 15.0;     
      resistance 0.00667;     
      reactance 0.03333;     
      shunt_impedance 318.750+304.091j;     
}       

object transformer_configuration {     
      name transformer_configuration_1717;     
      connect_type WYE_WYE;     
      install_type PADMOUNT;     
      primary_voltage 12470.000 V;    
      secondary_voltage 480 V;    
      power_rating 300.0;     
      powerA_rating 100.0;     
      powerB_rating 100.0;     
      powerC_rating 100.0;     
      resistance 0.00033;     
      reactance 0.00167;     
      shunt_impedance 913.260+1012.897j;     
}       

object transformer_configuration {     
      name transformer_configuration_1718;     
      connect_type WYE_WYE;     
      install_type POLETOP;     
      primary_voltage 12470.000 V;    
      secondary_voltage 480 V;    
      power_rating 150.0;     
      powerA_rating 50.0;     
      powerB_rating 50.0;     
      powerC_rating 50.0;     
      resistance 0.00067;     
      reactance 0.00333;     
      shunt_impedance 600.360+590.521j;     
}       

object transformer_configuration {     
      name transformer_configuration_1719;     
      connect_type WYE_WYE;     
      install_type POLETOP;     
      primary_voltage 12470.000 V;    
      secondary_voltage 480 V;    
      power_rating 50.0;     
      powerA_rating 50.0;     
      resistance 0.00200;     
      reactance 0.01000;     
      shunt_impedance 391.760+389.126j;     
}       

object transformer_configuration {     
      name transformer_configuration_1720;     
      connect_type WYE_WYE;     
      install_type POLETOP;     
      primary_voltage 12470.000 V;    
      secondary_voltage 480 V;    
      power_rating 125.0;     
      powerA_rating 125.0;     
      resistance 0.00080;     
      reactance 0.00400;     
      shunt_impedance 548.210+493.302j;     
}       

object transformer_configuration {     
      name transformer_configuration_1721;     
      connect_type WYE_WYE;     
      install_type PADMOUNT;     
      primary_voltage 12470.000 V;    
      secondary_voltage 480 V;    
      power_rating 37.5;     
      powerA_rating 37.5;     
      resistance 0.00267;     
      reactance 0.01333;     
      shunt_impedance 365.685+345.365j;     
}       

object transformer_configuration {     
      name transformer_configuration_1722;     
      connect_type WYE_WYE;     
      install_type POLETOP;     
      primary_voltage 12470.000 V;    
      secondary_voltage 480 V;    
      power_rating 15.0;     
      powerB_rating 15.0;     
      resistance 0.00667;     
      reactance 0.03333;     
      shunt_impedance 318.750+275.669j;     
}       

object transformer_configuration {     
      name transformer_configuration_1723;     
      connect_type WYE_WYE;     
      install_type POLETOP;     
      primary_voltage 12470.000 V;    
      secondary_voltage 480 V;    
      power_rating 50.0;     
      powerB_rating 50.0;     
      resistance 0.00200;     
      reactance 0.01000;     
      shunt_impedance 391.760+406.028j;     
}       

object transformer_configuration {     
      name transformer_configuration_1724;     
      connect_type WYE_WYE;     
      install_type POLETOP;     
      primary_voltage 12470.000 V;    
      secondary_voltage 480 V;    
      power_rating 30.0;     
      powerA_rating 15.0;     
      powerB_rating 15.0;     
      powerC_rating 0.0;     
      resistance 0.00333;     
      reactance 0.01667;     
      shunt_impedance 350.040+334.211j;     
}       

object transformer_configuration {     
      name transformer_configuration_1725;     
      connect_type WYE_WYE;     
      install_type POLETOP;     
      primary_voltage 12470.000 V;    
      secondary_voltage 480 V;    
      power_rating 15.0;     
      powerA_rating 15.0;     
      resistance 0.00667;     
      reactance 0.03333;     
      shunt_impedance 318.750+343.720j;     
}       

object transformer_configuration {     
      name transformer_configuration_1726;     
      connect_type WYE_WYE;     
      install_type POLETOP;     
      primary_voltage 12470.000 V;    
      secondary_voltage 480 V;    
      power_rating 25.0;     
      powerA_rating 25.0;     
      resistance 0.00400;     
      reactance 0.02000;     
      shunt_impedance 339.610+381.628j;     
}       

object triplex_line_conductor {     
      name triplex_4/0 AA;    
      resistance 0.48;     
      geometric_mean_radius 0.0158;     
}       

object triplex_line_configuration {     
      name triplex_line_configuration_1;     
      conductor_1 triplex_4/0 AA;    
      conductor_2 triplex_4/0 AA;    
      conductor_N triplex_4/0 AA;    
      insulation_thickness 0.08;     
      diameter 0.522;     
}       

object underground_line_conductor {     
      name underground_line_conductor_2;     
      //name 1000 AAC (Tape);   
      rating.summer.continuous 775.0;     
      outer_diameter 1.87;     
      conductor_gmr 0.0371 ft;    
      conductor_diameter 1.15;     
      conductor_resistance 0.0222;     
      neutral_gmr 0.0732739718442675 ft;    
      neutral_resistance 0.05;     
      neutral_diameter 0.102;     
      neutral_strands 20.0;     
      shield_gmr 0.00;     
      shield_resistance 0.00;     
}       

object underground_line_conductor {     
      name underground_line_conductor_5;     
      //name 1/0 AAC (Conc);   
      rating.summer.continuous 142.0;     
      outer_diameter 1.27;     
      conductor_gmr 0.01142 ft;    
      conductor_diameter 0.362;     
      conductor_resistance 0.88704;     
      neutral_gmr 0.0489686771417213 ft;    
      neutral_resistance 13.86528;     
      neutral_diameter 0.0641;     
      neutral_strands 16.0;     
      shield_gmr 0.00;     
      shield_resistance 0.00;     
}       

object transformer_configuration {
     name trans_config_to_feeder;
     connect_type WYE_WYE;
     install_type PADMOUNT;
     primary_voltage 230000;
     secondary_voltage 12470.000;
     power_rating 3.1 MVA;
     impedance 0.00033+0.0022j;
}

//Start actual feeder

object meter {
     name network_node;
     bustype SWING;
     nominal_voltage 230000;
     object player {
          property voltage_A;
          loop 100;
          file V_A.player;
     };
     object player {
          property voltage_B;
          loop 100;
          file V_B.player;
     };
     object player {
          property voltage_C;
          loop 100;
          file V_C.player;
     };
     phases ABCN;
}

object transformer {
     name substation_transformer;
     from network_node;
     to R1-12-47-2_node_338;
     phases ABCN;
     configuration trans_config_to_feeder;
}

        
object regulator {     
      name R1-12-47-2_reg_1;     
      from R1-12-47-2_node_338;     
      to R1-12-47-2_meter_14;     
      phases ABCN;     
      configuration feeder_reg_cfg;     
}       
object capacitor {     
      name R1-12-47-2_cap_1;     
      phases ABCN;     
      pt_phase A;     
      parent R1-12-47-2_node_54;     
      phases_connected ABC;     
      control VOLT;     
      voltage_set_high 7300;     
      voltage_set_low 7100;     
      capacitor_A 0.15 MVAr;    
      capacitor_B 0.15 MVAr;    
      capacitor_C 0.15 MVAr;    
      control_level INDIVIDUAL;     
      switchA CLOSED;     
      switchB CLOSED;     
      switchC CLOSED;     
      time_delay 30.0;     
      dwell_time 30.0;     
      cap_nominal_voltage 7200;     
      nominal_voltage 7200;     
}       
object fuse {     
      name R1-12-47-2_fuse_1;     
      phases ABCN;     
      from R1-12-47-2_node_4;     
      to R1-12-47-2_node_5;     
      current_limit 50000;// 80;    
      status CLOSED;     
}       
object fuse {     
      name R1-12-47-2_fuse_2;     
      phases ABCN;     
      from R1-12-47-2_node_5;     
      to R1-12-47-2_node_6;     
      current_limit 50000;// 40;    
      status CLOSED;     
}       
object fuse {     
      name R1-12-47-2_fuse_3;     
      phases AN;     
      from R1-12-47-2_node_7;     
      to R1-12-47-2_node_8;     
      current_limit 50000;// 40;    
      status CLOSED;     
}       
object fuse {     
      name R1-12-47-2_fuse_4;     
      phases AN;     
      from R1-12-47-2_node_10;     
      to R1-12-47-2_node_11;     
      current_limit 50000;// 30;    
      status CLOSED;     
}       
object fuse {     
      name R1-12-47-2_fuse_5;     
      phases AN;     
      from R1-12-47-2_node_12;     
      to R1-12-47-2_node_13;     
      current_limit 50000;// 30;    
      status CLOSED;     
}       
object fuse {     
      name R1-12-47-2_fuse_6;     
      phases CN;     
      from R1-12-47-2_node_18;     
      to R1-12-47-2_node_19;     
      current_limit 50000;// 10;    
      status CLOSED;     
}       
object fuse {     
      name R1-12-47-2_fuse_7;     
      phases BN;     
      from R1-12-47-2_node_21;     
      to R1-12-47-2_node_22;     
      current_limit 50000;// 10;    
      status CLOSED;     
}       
object fuse {     
      name R1-12-47-2_fuse_8;     
      phases AN;     
      from R1-12-47-2_node_24;     
      to R1-12-47-2_node_25;     
      current_limit 50000;// 10;    
      status CLOSED;     
}       
object fuse {     
      name R1-12-47-2_fuse_9;     
      phases BCN;     
      from R1-12-47-2_node_28;     
      to R1-12-47-2_node_29;     
      current_limit 50000;// 80;    
      status CLOSED;     
}       
object fuse {     
      name R1-12-47-2_fuse_10;     
      phases BN;     
      from R1-12-47-2_node_33;     
      to R1-12-47-2_node_34;     
      current_limit 50000;// 30;    
      status CLOSED;     
}       
object fuse {     
      name R1-12-47-2_fuse_11;     
      phases CN;     
      from R1-12-47-2_node_33;     
      to R1-12-47-2_node_35;     
      current_limit 50000;// 30;    
      status CLOSED;     
}       
object fuse {     
      name R1-12-47-2_fuse_12;     
      phases CN;     
      from R1-12-47-2_node_36;     
      to R1-12-47-2_node_37;     
      current_limit 50000;// 10;    
      status CLOSED;     
}       
object fuse {     
      name R1-12-47-2_fuse_13;     
      phases CN;     
      from R1-12-47-2_node_39;     
      to R1-12-47-2_node_40;     
      current_limit 50000;// 10;    
      status CLOSED;     
}       
object fuse {     
      name R1-12-47-2_fuse_14;     
      phases CN;     
      from R1-12-47-2_node_41;     
      to R1-12-47-2_node_43;     
      current_limit 50000;// 10;    
      status CLOSED;     
}       
object fuse {     
      name R1-12-47-2_fuse_15;     
      phases CN;     
      from R1-12-47-2_node_42;     
      to R1-12-47-2_node_44;     
      current_limit 50000;// 10;    
      status CLOSED;     
}       
object fuse {     
      name R1-12-47-2_fuse_16;     
      phases CN;     
      from R1-12-47-2_node_45;     
      to R1-12-47-2_node_46;     
      current_limit 50000;// 10;    
      status CLOSED;     
}       
object fuse {     
      name R1-12-47-2_fuse_17;     
      phases CN;     
      from R1-12-47-2_node_49;     
      to R1-12-47-2_node_50;     
      current_limit 50000;// 10;    
      status CLOSED;     
}       
object fuse {     
      name R1-12-47-2_fuse_18;     
      phases CN;     
      from R1-12-47-2_node_51;     
      to R1-12-47-2_node_52;     
      current_limit 50000;// 10;    
      status CLOSED;     
}       
object fuse {     
      name R1-12-47-2_fuse_19;     
      phases CN;     
      from R1-12-47-2_node_51;     
      to R1-12-47-2_node_53;     
      current_limit 50000;// 10;    
      status CLOSED;     
}       
object fuse {     
      name R1-12-47-2_fuse_20;     
      phases BN;     
      from R1-12-47-2_node_57;     
      to R1-12-47-2_node_58;     
      current_limit 50000;// 65;    
      status CLOSED;     
}       
object fuse {     
      name R1-12-47-2_fuse_21;     
      phases BN;     
      from R1-12-47-2_node_61;     
      to R1-12-47-2_node_62;     
      current_limit 50000;// 10;    
      status CLOSED;     
}       
object fuse {     
      name R1-12-47-2_fuse_22;     
      phases BN;     
      from R1-12-47-2_node_67;     
      to R1-12-47-2_node_68;     
      current_limit 50000;// 10;    
      status CLOSED;     
}       
object fuse {     
      name R1-12-47-2_fuse_23;     
      phases BN;     
      from R1-12-47-2_node_73;     
      to R1-12-47-2_node_74;     
      current_limit 50000;// 10;    
      status CLOSED;     
}       
object fuse {     
      name R1-12-47-2_fuse_24;     
      phases BN;     
      from R1-12-47-2_node_75;     
      to R1-12-47-2_node_76;     
      current_limit 50000;// 10;    
      status CLOSED;     
}       
object fuse {     
      name R1-12-47-2_fuse_25;     
      phases BN;     
      from R1-12-47-2_node_78;     
      to R1-12-47-2_node_79;     
      current_limit 50000;// 10;    
      status CLOSED;     
}       
object fuse {     
      name R1-12-47-2_fuse_26;     
      phases BN;     
      from R1-12-47-2_node_81;     
      to R1-12-47-2_node_82;     
      current_limit 50000;// 10;    
      status CLOSED;     
}       
object fuse {     
      name R1-12-47-2_fuse_27;     
      phases BN;     
      from R1-12-47-2_node_81;     
      to R1-12-47-2_node_83;     
      current_limit 50000;// 10;    
      status CLOSED;     
}       
object fuse {     
      name R1-12-47-2_fuse_28;     
      phases BN;     
      from R1-12-47-2_node_84;     
      to R1-12-47-2_node_85;     
      current_limit 50000;// 40;    
      status CLOSED;     
}       
object fuse {     
      name R1-12-47-2_fuse_29;     
      phases BN;     
      from R1-12-47-2_node_85;     
      to R1-12-47-2_node_86;     
      current_limit 50000;// 25;    
      status CLOSED;     
}       
object fuse {     
      name R1-12-47-2_fuse_30;     
      phases BN;     
      from R1-12-47-2_node_89;     
      to R1-12-47-2_node_90;     
      current_limit 50000;// 15;    
      status CLOSED;     
}       
object fuse {     
      name R1-12-47-2_fuse_31;     
      phases BN;     
      from R1-12-47-2_node_93;     
      to R1-12-47-2_node_95;     
      current_limit 50000;// 10;    
      status CLOSED;     
}       
object fuse {     
      name R1-12-47-2_fuse_32;     
      phases BN;     
      from R1-12-47-2_node_85;     
      to R1-12-47-2_node_96;     
      current_limit 50000;// 10;    
      status CLOSED;     
}       
object fuse {     
      name R1-12-47-2_fuse_33;     
      phases BN;     
      from R1-12-47-2_node_97;     
      to R1-12-47-2_node_336;     
      current_limit 50000;// 20;    
      status CLOSED;     
}       
object fuse {     
      name R1-12-47-2_fuse_34;     
      phases BN;     
      from R1-12-47-2_node_100;     
      to R1-12-47-2_node_102;     
      current_limit 50000;// 10;    
      status CLOSED;     
}       
object fuse {     
      name R1-12-47-2_fuse_35;     
      phases BN;     
      from R1-12-47-2_node_101;     
      to R1-12-47-2_node_103;     
      current_limit 50000;// 10;    
      status CLOSED;     
}       
object fuse {     
      name R1-12-47-2_fuse_36;     
      phases BN;     
      from R1-12-47-2_node_99;     
      to R1-12-47-2_node_105;     
      current_limit 50000;// 10;    
      status CLOSED;     
}       
object fuse {     
      name R1-12-47-2_fuse_37;     
      phases BN;     
      from R1-12-47-2_node_336;     
      to R1-12-47-2_node_337;     
      current_limit 50000;// 10;    
      status CLOSED;     
}       
object fuse {     
      name R1-12-47-2_fuse_38;     
      phases BN;     
      from R1-12-47-2_node_107;     
      to R1-12-47-2_node_108;     
      current_limit 50000;// 10;    
      status CLOSED;     
}       
object fuse {     
      name R1-12-47-2_fuse_39;     
      phases BN;     
      from R1-12-47-2_node_109;     
      to R1-12-47-2_node_110;     
      current_limit 50000;// 10;    
      status CLOSED;     
}       
object fuse {     
      name R1-12-47-2_fuse_40;     
      phases ABCN;     
      from R1-12-47-2_node_57;     
      to R1-12-47-2_node_111;     
      current_limit 50000;// 120;    
      status CLOSED;     
}       
object fuse {     
      name R1-12-47-2_fuse_41;     
      phases AN;     
      from R1-12-47-2_node_112;     
      to R1-12-47-2_node_113;     
      current_limit 50000;// 10;    
      status CLOSED;     
}       
object fuse {     
      name R1-12-47-2_fuse_42;     
      phases AN;     
      from R1-12-47-2_node_114;     
      to R1-12-47-2_node_115;     
      current_limit 50000;// 10;    
      status CLOSED;     
}       
object fuse {     
      name R1-12-47-2_fuse_43;     
      phases BN;     
      from R1-12-47-2_node_116;     
      to R1-12-47-2_node_323;     
      current_limit 50000;// 30;    
      status CLOSED;     
}       
object fuse {     
      name R1-12-47-2_fuse_44;     
      phases ABN;     
      from R1-12-47-2_node_118;     
      to R1-12-47-2_node_119;     
      current_limit 50000;// 85;    
      status CLOSED;     
}       
object fuse {     
      name R1-12-47-2_fuse_45;     
      phases BN;     
      from R1-12-47-2_node_122;     
      to R1-12-47-2_node_123;     
      current_limit 50000;// 10;    
      status CLOSED;     
}       
object fuse {     
      name R1-12-47-2_fuse_46;     
      phases AN;     
      from R1-12-47-2_node_129;     
      to R1-12-47-2_node_128;     
      current_limit 50000;// 15;    
      status CLOSED;     
}       
object fuse {     
      name R1-12-47-2_fuse_47;     
      phases AN;     
      from R1-12-47-2_node_133;     
      to R1-12-47-2_node_135;     
      current_limit 50000;// 10;    
      status CLOSED;     
}       
object fuse {     
      name R1-12-47-2_fuse_48;     
      phases AN;     
      from R1-12-47-2_node_139;     
      to R1-12-47-2_node_140;     
      current_limit 50000;// 10;    
      status CLOSED;     
}       
object fuse {     
      name R1-12-47-2_fuse_49;     
      phases AN;     
      from R1-12-47-2_node_126;     
      to R1-12-47-2_node_141;     
      current_limit 50000;// 40;    
      status CLOSED;     
}       
object fuse {     
      name R1-12-47-2_fuse_50;     
      phases AN;     
      from R1-12-47-2_node_141;     
      to R1-12-47-2_node_142;     
      current_limit 50000;// 10;    
      status CLOSED;     
}       
object fuse {     
      name R1-12-47-2_fuse_51;     
      phases AN;     
      from R1-12-47-2_node_144;     
      to R1-12-47-2_node_145;     
      current_limit 50000;// 10;    
      status CLOSED;     
}       
object fuse {     
      name R1-12-47-2_fuse_52;     
      phases AN;     
      from R1-12-47-2_node_148;     
      to R1-12-47-2_node_308;     
      current_limit 50000;// 10;    
      status CLOSED;     
}       
object fuse {     
      name R1-12-47-2_fuse_53;     
      phases AN;     
      from R1-12-47-2_node_148;     
      to R1-12-47-2_node_150;     
      current_limit 50000;// 25;    
      status CLOSED;     
}       
object fuse {     
      name R1-12-47-2_fuse_54;     
      phases CN;     
      from R1-12-47-2_node_118;     
      to R1-12-47-2_node_164;     
      current_limit 50000;// 50;    
      status CLOSED;     
}       
object fuse {     
      name R1-12-47-2_fuse_55;     
      phases CN;     
      from R1-12-47-2_node_164;     
      to R1-12-47-2_node_165;     
      current_limit 50000;// 10;    
      status CLOSED;     
}       
object fuse {     
      name R1-12-47-2_fuse_56;     
      phases CN;     
      from R1-12-47-2_node_166;     
      to R1-12-47-2_node_168;     
      current_limit 50000;// 30;    
      status CLOSED;     
}       
object fuse {     
      name R1-12-47-2_fuse_57;     
      phases BN;     
      from R1-12-47-2_node_184;     
      to R1-12-47-2_node_334;     
      current_limit 50000;// 10;    
      status CLOSED;     
}       
object fuse {     
      name R1-12-47-2_fuse_58;     
      phases CN;     
      from R1-12-47-2_node_185;     
      to R1-12-47-2_node_186;     
      current_limit 50000;// 10;    
      status CLOSED;     
}       
object fuse {     
      name R1-12-47-2_fuse_59;     
      phases CN;     
      from R1-12-47-2_node_187;     
      to R1-12-47-2_node_188;     
      current_limit 50000;// 10;    
      status CLOSED;     
}       
object fuse {     
      name R1-12-47-2_fuse_60;     
      phases CN;     
      from R1-12-47-2_node_189;     
      to R1-12-47-2_node_190;     
      current_limit 50000;// 30;    
      status CLOSED;     
}       
object fuse {     
      name R1-12-47-2_fuse_61;     
      phases BN;     
      from R1-12-47-2_node_208;     
      to R1-12-47-2_node_209;     
      current_limit 50000;// 10;    
      status CLOSED;     
}       
object fuse {     
      name R1-12-47-2_fuse_62;     
      phases CN;     
      from R1-12-47-2_node_210;     
      to R1-12-47-2_node_211;     
      current_limit 50000;// 15;    
      status CLOSED;     
}       
object fuse {     
      name R1-12-47-2_fuse_63;     
      phases BCN;     
      from R1-12-47-2_node_215;     
      to R1-12-47-2_node_216;     
      current_limit 50000;// 10;    
      status CLOSED;     
}       
object fuse {     
      name R1-12-47-2_fuse_64;     
      phases CN;     
      from R1-12-47-2_node_217;     
      to R1-12-47-2_node_335;     
      current_limit 50000;// 10;    
      status CLOSED;     
}       
object fuse {     
      name R1-12-47-2_fuse_65;     
      phases BCN;     
      from R1-12-47-2_node_217;     
      to R1-12-47-2_node_320;     
      current_limit 50000;// 30;    
      status CLOSED;     
}       
object fuse {     
      name R1-12-47-2_fuse_66;     
      phases BN;     
      from R1-12-47-2_node_222;     
      to R1-12-47-2_node_223;     
      current_limit 50000;// 40;    
      status CLOSED;     
}       
object fuse {     
      name R1-12-47-2_fuse_67;     
      phases BN;     
      from R1-12-47-2_node_232;     
      to R1-12-47-2_node_233;     
      current_limit 50000;// 10;    
      status CLOSED;     
}       
object fuse {     
      name R1-12-47-2_fuse_68;     
      phases BN;     
      from R1-12-47-2_node_235;     
      to R1-12-47-2_node_236;     
      current_limit 50000;// 10;    
      status CLOSED;     
}       
object fuse {     
      name R1-12-47-2_fuse_69;     
      phases CN;     
      from R1-12-47-2_node_238;     
      to R1-12-47-2_node_239;     
      current_limit 50000;// 10;    
      status CLOSED;     
}       
object fuse {     
      name R1-12-47-2_fuse_70;     
      phases CN;     
      from R1-12-47-2_node_238;     
      to R1-12-47-2_node_240;     
      current_limit 50000;// 10;    
      status CLOSED;     
}       
object fuse {     
      name R1-12-47-2_fuse_71;     
      phases CN;     
      from R1-12-47-2_node_242;     
      to R1-12-47-2_node_243;     
      current_limit 50000;// 30;    
      status CLOSED;     
}       
object fuse {     
      name R1-12-47-2_fuse_72;     
      phases CN;     
      from R1-12-47-2_node_251;     
      to R1-12-47-2_node_252;     
      current_limit 50000;// 10;    
      status CLOSED;     
}       
object fuse {     
      name R1-12-47-2_fuse_73;     
      phases BN;     
      from R1-12-47-2_node_254;     
      to R1-12-47-2_node_255;     
      current_limit 50000;// 10;    
      status CLOSED;     
}       
object fuse {     
      name R1-12-47-2_fuse_74;     
      phases BN;     
      from R1-12-47-2_node_259;     
      to R1-12-47-2_node_310;     
      current_limit 50000;// 15;    
      status CLOSED;     
}       
object fuse {     
      name R1-12-47-2_fuse_75;     
      phases CN;     
      from R1-12-47-2_node_265;     
      to R1-12-47-2_node_266;     
      current_limit 50000;// 10;    
      status CLOSED;     
}       
object fuse {     
      name R1-12-47-2_fuse_76;     
      phases CN;     
      from R1-12-47-2_node_267;     
      to R1-12-47-2_node_268;     
      current_limit 50000;// 10;    
      status CLOSED;     
}       
object fuse {     
      name R1-12-47-2_fuse_77;     
      phases BN;     
      from R1-12-47-2_node_272;     
      to R1-12-47-2_node_273;     
      current_limit 50000;// 30;    
      status CLOSED;     
}       
object fuse {     
      name R1-12-47-2_fuse_78;     
      phases BN;     
      from R1-12-47-2_node_273;     
      to R1-12-47-2_node_275;     
      current_limit 50000;// 20;    
      status CLOSED;     
}       
object fuse {     
      name R1-12-47-2_fuse_79;     
      phases BN;     
      from R1-12-47-2_node_275;     
      to R1-12-47-2_node_276;     
      current_limit 50000;// 25;    
      status CLOSED;     
}       
object fuse {     
      name R1-12-47-2_fuse_80;     
      phases BN;     
      from R1-12-47-2_node_117;     
      to R1-12-47-2_node_307;     
      current_limit 50000;// 10;    
      status CLOSED;     
}       
object fuse {     
      name R1-12-47-2_fuse_81;     
      phases BN;     
      from R1-12-47-2_node_315;     
      to R1-12-47-2_node_316;     
      current_limit 50000;// 10;    
      status CLOSED;     
}       
object fuse {     
      name R1-12-47-2_fuse_82;     
      phases BN;     
      from R1-12-47-2_node_106;     
      to R1-12-47-2_node_318;     
      current_limit 50000;// 10;    
      status CLOSED;     
}       
object fuse {     
      name R1-12-47-2_fuse_83;     
      phases BN;     
      from R1-12-47-2_node_320;     
      to R1-12-47-2_node_321;     
      current_limit 50000;// 10;    
      status CLOSED;     
}       
object fuse {     
      name R1-12-47-2_fuse_84;     
      phases AN;     
      from R1-12-47-2_node_329;     
      to R1-12-47-2_node_331;     
      current_limit 50000;// 10;    
      status CLOSED;     
}       

object node {
      name R1-12-47-2_load_1;     
      parent R1-12-47-2_meter_1;     
      phases ABCN;     
      nominal_voltage 480.00;
}


object node {
      name R1-12-47-2_load_2;     
      parent R1-12-47-2_meter_2;     
      phases ABCN;     
      nominal_voltage 480.00;
}


object node {
      name R1-12-47-2_load_3;     
      parent R1-12-47-2_meter_3;     
      phases ABCN;     
      nominal_voltage 480.00;
}


object node {
      name R1-12-47-2_load_4;     
      parent R1-12-47-2_meter_4;     
      phases AN;     
      nominal_voltage 480.00;
}


object node {
      name R1-12-47-2_load_5;     
      parent R1-12-47-2_meter_5;     
      phases AN;     
      nominal_voltage 480.00;
}


object node {
      name R1-12-47-2_load_6;     
      parent R1-12-47-2_meter_6;     
      phases AN;     
      nominal_voltage 480.00;
}


object node {
      name R1-12-47-2_load_7;     
      parent R1-12-47-2_meter_7;     
      phases AN;     
      nominal_voltage 480.00;
}


object node {
      name R1-12-47-2_load_8;     
      parent R1-12-47-2_meter_8;     
      phases BN;     
      nominal_voltage 480.00;
}


object node {
...